	WIDTH = 8;
	DEPTH = 1520;

	ADDRESS_RADIX = HEX;
	DATA_RADIX = HEX;

	CONTENT BEGIN
               0	:	00;
               1	:	00;
               2	:	00;
               3	:	00;
               4	:	00;
               5	:	00;
               6	:	00;
               7	:	00;
               8	:	00;
               9	:	00;
               A	:	00;
               B	:	00;
               C	:	00;
               D	:	00;
               E	:	00;
               F	:	00;
              10	:	00;
              11	:	18;
              12	:	18;
              13	:	18;
              14	:	18;
              15	:	08;
              16	:	08;
              17	:	08;
              18	:	08;
              19	:	08;
              1A	:	08;
              1B	:	00;
              1C	:	00;
              1D	:	08;
              1E	:	08;
              1F	:	00;
              20	:	36;
              21	:	24;
              22	:	24;
              23	:	12;
              24	:	00;
              25	:	00;
              26	:	00;
              27	:	00;
              28	:	00;
              29	:	00;
              2A	:	00;
              2B	:	00;
              2C	:	00;
              2D	:	00;
              2E	:	00;
              2F	:	00;
              30	:	00;
              31	:	48;
              32	:	48;
              33	:	48;
              34	:	FE;
              35	:	24;
              36	:	24;
              37	:	24;
              38	:	24;
              39	:	24;
              3A	:	7F;
              3B	:	12;
              3C	:	12;
              3D	:	12;
              3E	:	12;
              3F	:	00;
              40	:	08;
              41	:	1C;
              42	:	2A;
              43	:	49;
              44	:	49;
              45	:	09;
              46	:	0A;
              47	:	1C;
              48	:	28;
              49	:	48;
              4A	:	49;
              4B	:	49;
              4C	:	2A;
              4D	:	1C;
              4E	:	08;
              4F	:	08;
              50	:	80;
              51	:	86;
              52	:	49;
              53	:	49;
              54	:	29;
              55	:	29;
              56	:	16;
              57	:	10;
              58	:	08;
              59	:	68;
              5A	:	94;
              5B	:	94;
              5C	:	92;
              5D	:	92;
              5E	:	61;
              5F	:	01;
              60	:	00;
              61	:	1C;
              62	:	22;
              63	:	22;
              64	:	22;
              65	:	14;
              66	:	08;
              67	:	0C;
              68	:	52;
              69	:	51;
              6A	:	21;
              6B	:	21;
              6C	:	52;
              6D	:	8C;
              6E	:	00;
              6F	:	00;
              70	:	06;
              71	:	04;
              72	:	04;
              73	:	02;
              74	:	00;
              75	:	00;
              76	:	00;
              77	:	00;
              78	:	00;
              79	:	00;
              7A	:	00;
              7B	:	00;
              7C	:	00;
              7D	:	00;
              7E	:	00;
              7F	:	00;
              80	:	00;
              81	:	40;
              82	:	20;
              83	:	10;
              84	:	10;
              85	:	08;
              86	:	08;
              87	:	08;
              88	:	08;
              89	:	08;
              8A	:	08;
              8B	:	08;
              8C	:	10;
              8D	:	10;
              8E	:	20;
              8F	:	40;
              90	:	00;
              91	:	02;
              92	:	04;
              93	:	08;
              94	:	08;
              95	:	10;
              96	:	10;
              97	:	10;
              98	:	10;
              99	:	10;
              9A	:	10;
              9B	:	10;
              9C	:	08;
              9D	:	08;
              9E	:	04;
              9F	:	02;
              A0	:	00;
              A1	:	00;
              A2	:	00;
              A3	:	00;
              A4	:	08;
              A5	:	49;
              A6	:	2A;
              A7	:	1C;
              A8	:	2A;
              A9	:	49;
              AA	:	08;
              AB	:	00;
              AC	:	00;
              AD	:	00;
              AE	:	00;
              AF	:	00;
              B0	:	00;
              B1	:	00;
              B2	:	00;
              B3	:	08;
              B4	:	08;
              B5	:	08;
              B6	:	08;
              B7	:	7F;
              B8	:	08;
              B9	:	08;
              BA	:	08;
              BB	:	08;
              BC	:	00;
              BD	:	00;
              BE	:	00;
              BF	:	00;
              C0	:	00;
              C1	:	00;
              C2	:	00;
              C3	:	00;
              C4	:	00;
              C5	:	00;
              C6	:	00;
              C7	:	00;
              C8	:	00;
              C9	:	00;
              CA	:	00;
              CB	:	00;
              CC	:	06;
              CD	:	04;
              CE	:	04;
              CF	:	02;
              D0	:	00;
              D1	:	00;
              D2	:	00;
              D3	:	00;
              D4	:	00;
              D5	:	00;
              D6	:	00;
              D7	:	7F;
              D8	:	00;
              D9	:	00;
              DA	:	00;
              DB	:	00;
              DC	:	00;
              DD	:	00;
              DE	:	00;
              DF	:	00;
              E0	:	00;
              E1	:	00;
              E2	:	00;
              E3	:	00;
              E4	:	00;
              E5	:	00;
              E6	:	00;
              E7	:	00;
              E8	:	00;
              E9	:	00;
              EA	:	00;
              EB	:	00;
              EC	:	06;
              ED	:	06;
              EE	:	00;
              EF	:	00;
              F0	:	00;
              F1	:	40;
              F2	:	40;
              F3	:	20;
              F4	:	20;
              F5	:	10;
              F6	:	10;
              F7	:	08;
              F8	:	08;
              F9	:	04;
              FA	:	04;
              FB	:	02;
              FC	:	02;
              FD	:	01;
              FE	:	01;
              FF	:	00;
             100	:	00;
             101	:	18;
             102	:	24;
             103	:	24;
             104	:	42;
             105	:	42;
             106	:	42;
             107	:	42;
             108	:	42;
             109	:	42;
             10A	:	42;
             10B	:	24;
             10C	:	24;
             10D	:	18;
             10E	:	00;
             10F	:	00;
             110	:	00;
             111	:	08;
             112	:	08;
             113	:	0C;
             114	:	0A;
             115	:	08;
             116	:	08;
             117	:	08;
             118	:	08;
             119	:	08;
             11A	:	08;
             11B	:	08;
             11C	:	08;
             11D	:	08;
             11E	:	00;
             11F	:	00;
             120	:	00;
             121	:	18;
             122	:	24;
             123	:	42;
             124	:	42;
             125	:	40;
             126	:	20;
             127	:	10;
             128	:	08;
             129	:	04;
             12A	:	04;
             12B	:	02;
             12C	:	02;
             12D	:	7E;
             12E	:	00;
             12F	:	00;
             130	:	00;
             131	:	1C;
             132	:	22;
             133	:	41;
             134	:	41;
             135	:	40;
             136	:	20;
             137	:	1C;
             138	:	20;
             139	:	40;
             13A	:	41;
             13B	:	41;
             13C	:	22;
             13D	:	1C;
             13E	:	00;
             13F	:	00;
             140	:	00;
             141	:	10;
             142	:	18;
             143	:	18;
             144	:	14;
             145	:	14;
             146	:	12;
             147	:	12;
             148	:	11;
             149	:	7F;
             14A	:	10;
             14B	:	10;
             14C	:	10;
             14D	:	10;
             14E	:	00;
             14F	:	00;
             150	:	00;
             151	:	3E;
             152	:	02;
             153	:	02;
             154	:	02;
             155	:	1D;
             156	:	23;
             157	:	41;
             158	:	40;
             159	:	40;
             15A	:	41;
             15B	:	41;
             15C	:	22;
             15D	:	1C;
             15E	:	00;
             15F	:	00;
             160	:	00;
             161	:	1C;
             162	:	22;
             163	:	02;
             164	:	01;
             165	:	01;
             166	:	1D;
             167	:	23;
             168	:	41;
             169	:	41;
             16A	:	41;
             16B	:	41;
             16C	:	22;
             16D	:	1C;
             16E	:	00;
             16F	:	00;
             170	:	00;
             171	:	7F;
             172	:	40;
             173	:	20;
             174	:	20;
             175	:	10;
             176	:	10;
             177	:	10;
             178	:	10;
             179	:	08;
             17A	:	08;
             17B	:	08;
             17C	:	08;
             17D	:	08;
             17E	:	08;
             17F	:	00;
             180	:	00;
             181	:	1C;
             182	:	22;
             183	:	41;
             184	:	41;
             185	:	41;
             186	:	22;
             187	:	1C;
             188	:	22;
             189	:	41;
             18A	:	41;
             18B	:	41;
             18C	:	22;
             18D	:	1C;
             18E	:	00;
             18F	:	00;
             190	:	00;
             191	:	1C;
             192	:	22;
             193	:	41;
             194	:	41;
             195	:	41;
             196	:	41;
             197	:	62;
             198	:	5C;
             199	:	40;
             19A	:	40;
             19B	:	41;
             19C	:	22;
             19D	:	1C;
             19E	:	00;
             19F	:	00;
             1A0	:	00;
             1A1	:	00;
             1A2	:	00;
             1A3	:	00;
             1A4	:	18;
             1A5	:	18;
             1A6	:	00;
             1A7	:	00;
             1A8	:	00;
             1A9	:	00;
             1AA	:	00;
             1AB	:	18;
             1AC	:	18;
             1AD	:	00;
             1AE	:	00;
             1AF	:	00;
             1B0	:	00;
             1B1	:	00;
             1B2	:	00;
             1B3	:	00;
             1B4	:	18;
             1B5	:	18;
             1B6	:	00;
             1B7	:	00;
             1B8	:	00;
             1B9	:	00;
             1BA	:	18;
             1BB	:	10;
             1BC	:	10;
             1BD	:	08;
             1BE	:	00;
             1BF	:	00;
             1C0	:	00;
             1C1	:	00;
             1C2	:	00;
             1C3	:	40;
             1C4	:	20;
             1C5	:	10;
             1C6	:	08;
             1C7	:	04;
             1C8	:	04;
             1C9	:	08;
             1CA	:	10;
             1CB	:	20;
             1CC	:	40;
             1CD	:	00;
             1CE	:	00;
             1CF	:	00;
             1D0	:	00;
             1D1	:	00;
             1D2	:	00;
             1D3	:	00;
             1D4	:	00;
             1D5	:	7F;
             1D6	:	00;
             1D7	:	00;
             1D8	:	00;
             1D9	:	7F;
             1DA	:	00;
             1DB	:	00;
             1DC	:	00;
             1DD	:	00;
             1DE	:	00;
             1DF	:	00;
             1E0	:	00;
             1E1	:	00;
             1E2	:	00;
             1E3	:	02;
             1E4	:	04;
             1E5	:	08;
             1E6	:	10;
             1E7	:	20;
             1E8	:	20;
             1E9	:	10;
             1EA	:	08;
             1EB	:	04;
             1EC	:	02;
             1ED	:	00;
             1EE	:	00;
             1EF	:	00;
             1F0	:	00;
             1F1	:	1C;
             1F2	:	22;
             1F3	:	41;
             1F4	:	41;
             1F5	:	41;
             1F6	:	20;
             1F7	:	10;
             1F8	:	10;
             1F9	:	08;
             1FA	:	08;
             1FB	:	00;
             1FC	:	00;
             1FD	:	08;
             1FE	:	08;
             1FF	:	00;
             200	:	00;
             201	:	18;
             202	:	24;
             203	:	42;
             204	:	5A;
             205	:	AD;
             206	:	A5;
             207	:	A5;
             208	:	A5;
             209	:	59;
             20A	:	02;
             20B	:	02;
             20C	:	44;
             20D	:	38;
             20E	:	00;
             20F	:	00;
             210	:	00;
             211	:	08;
             212	:	08;
             213	:	14;
             214	:	14;
             215	:	14;
             216	:	22;
             217	:	22;
             218	:	22;
             219	:	3E;
             21A	:	41;
             21B	:	41;
             21C	:	41;
             21D	:	41;
             21E	:	00;
             21F	:	00;
             220	:	00;
             221	:	0F;
             222	:	11;
             223	:	21;
             224	:	21;
             225	:	21;
             226	:	11;
             227	:	1F;
             228	:	21;
             229	:	41;
             22A	:	41;
             22B	:	41;
             22C	:	21;
             22D	:	1F;
             22E	:	00;
             22F	:	00;
             230	:	00;
             231	:	1C;
             232	:	22;
             233	:	42;
             234	:	01;
             235	:	01;
             236	:	01;
             237	:	01;
             238	:	01;
             239	:	01;
             23A	:	01;
             23B	:	42;
             23C	:	22;
             23D	:	1C;
             23E	:	00;
             23F	:	00;
             240	:	00;
             241	:	0F;
             242	:	11;
             243	:	21;
             244	:	21;
             245	:	41;
             246	:	41;
             247	:	41;
             248	:	41;
             249	:	41;
             24A	:	21;
             24B	:	21;
             24C	:	11;
             24D	:	0F;
             24E	:	00;
             24F	:	00;
             250	:	00;
             251	:	7F;
             252	:	01;
             253	:	01;
             254	:	01;
             255	:	01;
             256	:	01;
             257	:	3F;
             258	:	01;
             259	:	01;
             25A	:	01;
             25B	:	01;
             25C	:	01;
             25D	:	7F;
             25E	:	00;
             25F	:	00;
             260	:	00;
             261	:	7F;
             262	:	01;
             263	:	01;
             264	:	01;
             265	:	01;
             266	:	01;
             267	:	3F;
             268	:	01;
             269	:	01;
             26A	:	01;
             26B	:	01;
             26C	:	01;
             26D	:	01;
             26E	:	00;
             26F	:	00;
             270	:	00;
             271	:	18;
             272	:	24;
             273	:	42;
             274	:	02;
             275	:	01;
             276	:	01;
             277	:	71;
             278	:	41;
             279	:	41;
             27A	:	41;
             27B	:	42;
             27C	:	66;
             27D	:	58;
             27E	:	00;
             27F	:	00;
             280	:	00;
             281	:	41;
             282	:	41;
             283	:	41;
             284	:	41;
             285	:	41;
             286	:	41;
             287	:	7F;
             288	:	41;
             289	:	41;
             28A	:	41;
             28B	:	41;
             28C	:	41;
             28D	:	41;
             28E	:	00;
             28F	:	00;
             290	:	00;
             291	:	1C;
             292	:	08;
             293	:	08;
             294	:	08;
             295	:	08;
             296	:	08;
             297	:	08;
             298	:	08;
             299	:	08;
             29A	:	08;
             29B	:	08;
             29C	:	08;
             29D	:	1C;
             29E	:	00;
             29F	:	00;
             2A0	:	00;
             2A1	:	40;
             2A2	:	40;
             2A3	:	40;
             2A4	:	40;
             2A5	:	40;
             2A6	:	40;
             2A7	:	40;
             2A8	:	40;
             2A9	:	40;
             2AA	:	40;
             2AB	:	42;
             2AC	:	24;
             2AD	:	18;
             2AE	:	00;
             2AF	:	00;
             2B0	:	00;
             2B1	:	42;
             2B2	:	42;
             2B3	:	22;
             2B4	:	22;
             2B5	:	12;
             2B6	:	1A;
             2B7	:	16;
             2B8	:	26;
             2B9	:	22;
             2BA	:	42;
             2BB	:	42;
             2BC	:	82;
             2BD	:	82;
             2BE	:	00;
             2BF	:	00;
             2C0	:	00;
             2C1	:	02;
             2C2	:	02;
             2C3	:	02;
             2C4	:	02;
             2C5	:	02;
             2C6	:	02;
             2C7	:	02;
             2C8	:	02;
             2C9	:	02;
             2CA	:	02;
             2CB	:	02;
             2CC	:	02;
             2CD	:	7E;
             2CE	:	00;
             2CF	:	00;
             2D0	:	00;
             2D1	:	41;
             2D2	:	41;
             2D3	:	63;
             2D4	:	63;
             2D5	:	63;
             2D6	:	55;
             2D7	:	55;
             2D8	:	55;
             2D9	:	49;
             2DA	:	49;
             2DB	:	49;
             2DC	:	49;
             2DD	:	41;
             2DE	:	00;
             2DF	:	00;
             2E0	:	00;
             2E1	:	41;
             2E2	:	43;
             2E3	:	43;
             2E4	:	45;
             2E5	:	45;
             2E6	:	49;
             2E7	:	49;
             2E8	:	49;
             2E9	:	51;
             2EA	:	51;
             2EB	:	61;
             2EC	:	61;
             2ED	:	41;
             2EE	:	00;
             2EF	:	00;
             2F0	:	00;
             2F1	:	1C;
             2F2	:	22;
             2F3	:	22;
             2F4	:	41;
             2F5	:	41;
             2F6	:	41;
             2F7	:	41;
             2F8	:	41;
             2F9	:	41;
             2FA	:	41;
             2FB	:	22;
             2FC	:	22;
             2FD	:	1C;
             2FE	:	00;
             2FF	:	00;
             300	:	00;
             301	:	1F;
             302	:	21;
             303	:	41;
             304	:	41;
             305	:	41;
             306	:	21;
             307	:	1F;
             308	:	01;
             309	:	01;
             30A	:	01;
             30B	:	01;
             30C	:	01;
             30D	:	01;
             30E	:	00;
             30F	:	00;
             310	:	00;
             311	:	1C;
             312	:	22;
             313	:	22;
             314	:	41;
             315	:	41;
             316	:	41;
             317	:	41;
             318	:	41;
             319	:	41;
             31A	:	5D;
             31B	:	22;
             31C	:	22;
             31D	:	1C;
             31E	:	10;
             31F	:	60;
             320	:	00;
             321	:	1F;
             322	:	21;
             323	:	41;
             324	:	41;
             325	:	41;
             326	:	21;
             327	:	1F;
             328	:	11;
             329	:	21;
             32A	:	21;
             32B	:	21;
             32C	:	41;
             32D	:	41;
             32E	:	00;
             32F	:	00;
             330	:	00;
             331	:	1C;
             332	:	22;
             333	:	41;
             334	:	41;
             335	:	01;
             336	:	06;
             337	:	18;
             338	:	20;
             339	:	40;
             33A	:	41;
             33B	:	41;
             33C	:	22;
             33D	:	1C;
             33E	:	00;
             33F	:	00;
             340	:	00;
             341	:	7F;
             342	:	08;
             343	:	08;
             344	:	08;
             345	:	08;
             346	:	08;
             347	:	08;
             348	:	08;
             349	:	08;
             34A	:	08;
             34B	:	08;
             34C	:	08;
             34D	:	08;
             34E	:	00;
             34F	:	00;
             350	:	00;
             351	:	41;
             352	:	41;
             353	:	41;
             354	:	41;
             355	:	41;
             356	:	41;
             357	:	41;
             358	:	41;
             359	:	41;
             35A	:	41;
             35B	:	41;
             35C	:	22;
             35D	:	1C;
             35E	:	00;
             35F	:	00;
             360	:	00;
             361	:	41;
             362	:	41;
             363	:	41;
             364	:	41;
             365	:	22;
             366	:	22;
             367	:	22;
             368	:	14;
             369	:	14;
             36A	:	14;
             36B	:	08;
             36C	:	08;
             36D	:	08;
             36E	:	00;
             36F	:	00;
             370	:	00;
             371	:	49;
             372	:	49;
             373	:	49;
             374	:	49;
             375	:	49;
             376	:	49;
             377	:	55;
             378	:	55;
             379	:	36;
             37A	:	22;
             37B	:	22;
             37C	:	22;
             37D	:	22;
             37E	:	00;
             37F	:	00;
             380	:	00;
             381	:	41;
             382	:	22;
             383	:	22;
             384	:	14;
             385	:	14;
             386	:	08;
             387	:	14;
             388	:	14;
             389	:	14;
             38A	:	22;
             38B	:	22;
             38C	:	41;
             38D	:	41;
             38E	:	00;
             38F	:	00;
             390	:	00;
             391	:	41;
             392	:	41;
             393	:	22;
             394	:	22;
             395	:	22;
             396	:	14;
             397	:	14;
             398	:	08;
             399	:	08;
             39A	:	08;
             39B	:	08;
             39C	:	08;
             39D	:	08;
             39E	:	00;
             39F	:	00;
             3A0	:	00;
             3A1	:	7F;
             3A2	:	20;
             3A3	:	20;
             3A4	:	10;
             3A5	:	10;
             3A6	:	08;
             3A7	:	08;
             3A8	:	04;
             3A9	:	04;
             3AA	:	02;
             3AB	:	02;
             3AC	:	01;
             3AD	:	7F;
             3AE	:	00;
             3AF	:	00;
             3B0	:	78;
             3B1	:	08;
             3B2	:	08;
             3B3	:	08;
             3B4	:	08;
             3B5	:	08;
             3B6	:	08;
             3B7	:	08;
             3B8	:	08;
             3B9	:	08;
             3BA	:	08;
             3BB	:	08;
             3BC	:	08;
             3BD	:	08;
             3BE	:	08;
             3BF	:	78;
             3C0	:	00;
             3C1	:	01;
             3C2	:	01;
             3C3	:	02;
             3C4	:	02;
             3C5	:	04;
             3C6	:	04;
             3C7	:	08;
             3C8	:	08;
             3C9	:	10;
             3CA	:	10;
             3CB	:	20;
             3CC	:	20;
             3CD	:	40;
             3CE	:	40;
             3CF	:	00;
             3D0	:	0F;
             3D1	:	08;
             3D2	:	08;
             3D3	:	08;
             3D4	:	08;
             3D5	:	08;
             3D6	:	08;
             3D7	:	08;
             3D8	:	08;
             3D9	:	08;
             3DA	:	08;
             3DB	:	08;
             3DC	:	08;
             3DD	:	08;
             3DE	:	08;
             3DF	:	0F;
             3E0	:	08;
             3E1	:	14;
             3E2	:	22;
             3E3	:	41;
             3E4	:	00;
             3E5	:	00;
             3E6	:	00;
             3E7	:	00;
             3E8	:	00;
             3E9	:	00;
             3EA	:	00;
             3EB	:	00;
             3EC	:	00;
             3ED	:	00;
             3EE	:	00;
             3EF	:	00;
             3F0	:	00;
             3F1	:	00;
             3F2	:	00;
             3F3	:	00;
             3F4	:	00;
             3F5	:	00;
             3F6	:	00;
             3F7	:	00;
             3F8	:	00;
             3F9	:	00;
             3FA	:	00;
             3FB	:	00;
             3FC	:	00;
             3FD	:	00;
             3FE	:	7F;
             3FF	:	00;
             400	:	04;
             401	:	0C;
             402	:	18;
             403	:	20;
             404	:	00;
             405	:	00;
             406	:	00;
             407	:	00;
             408	:	00;
             409	:	00;
             40A	:	00;
             40B	:	00;
             40C	:	00;
             40D	:	00;
             40E	:	00;
             40F	:	00;
             410	:	00;
             411	:	00;
             412	:	00;
             413	:	00;
             414	:	00;
             415	:	3C;
             416	:	42;
             417	:	40;
             418	:	7C;
             419	:	42;
             41A	:	41;
             41B	:	41;
             41C	:	61;
             41D	:	5E;
             41E	:	00;
             41F	:	00;
             420	:	00;
             421	:	01;
             422	:	01;
             423	:	01;
             424	:	01;
             425	:	1D;
             426	:	23;
             427	:	41;
             428	:	41;
             429	:	41;
             42A	:	41;
             42B	:	41;
             42C	:	23;
             42D	:	1D;
             42E	:	00;
             42F	:	00;
             430	:	00;
             431	:	00;
             432	:	00;
             433	:	00;
             434	:	00;
             435	:	1C;
             436	:	22;
             437	:	41;
             438	:	01;
             439	:	01;
             43A	:	01;
             43B	:	41;
             43C	:	22;
             43D	:	1C;
             43E	:	00;
             43F	:	00;
             440	:	00;
             441	:	40;
             442	:	40;
             443	:	40;
             444	:	40;
             445	:	5C;
             446	:	62;
             447	:	41;
             448	:	41;
             449	:	41;
             44A	:	41;
             44B	:	41;
             44C	:	62;
             44D	:	5C;
             44E	:	00;
             44F	:	00;
             450	:	00;
             451	:	00;
             452	:	00;
             453	:	00;
             454	:	00;
             455	:	1C;
             456	:	22;
             457	:	41;
             458	:	41;
             459	:	7F;
             45A	:	01;
             45B	:	41;
             45C	:	22;
             45D	:	1C;
             45E	:	00;
             45F	:	00;
             460	:	00;
             461	:	30;
             462	:	08;
             463	:	08;
             464	:	08;
             465	:	3E;
             466	:	08;
             467	:	08;
             468	:	08;
             469	:	08;
             46A	:	08;
             46B	:	08;
             46C	:	08;
             46D	:	08;
             46E	:	00;
             46F	:	00;
             470	:	00;
             471	:	00;
             472	:	00;
             473	:	00;
             474	:	00;
             475	:	DC;
             476	:	22;
             477	:	22;
             478	:	22;
             479	:	1C;
             47A	:	02;
             47B	:	1E;
             47C	:	21;
             47D	:	41;
             47E	:	41;
             47F	:	3E;
             480	:	00;
             481	:	02;
             482	:	02;
             483	:	02;
             484	:	02;
             485	:	3A;
             486	:	46;
             487	:	42;
             488	:	42;
             489	:	42;
             48A	:	42;
             48B	:	42;
             48C	:	42;
             48D	:	42;
             48E	:	00;
             48F	:	00;
             490	:	00;
             491	:	08;
             492	:	08;
             493	:	00;
             494	:	00;
             495	:	0C;
             496	:	08;
             497	:	08;
             498	:	08;
             499	:	08;
             49A	:	08;
             49B	:	08;
             49C	:	08;
             49D	:	08;
             49E	:	00;
             49F	:	00;
             4A0	:	00;
             4A1	:	10;
             4A2	:	10;
             4A3	:	00;
             4A4	:	00;
             4A5	:	18;
             4A6	:	10;
             4A7	:	10;
             4A8	:	10;
             4A9	:	10;
             4AA	:	10;
             4AB	:	10;
             4AC	:	10;
             4AD	:	10;
             4AE	:	08;
             4AF	:	06;
             4B0	:	00;
             4B1	:	02;
             4B2	:	02;
             4B3	:	02;
             4B4	:	02;
             4B5	:	42;
             4B6	:	22;
             4B7	:	12;
             4B8	:	0A;
             4B9	:	16;
             4BA	:	22;
             4BB	:	22;
             4BC	:	42;
             4BD	:	42;
             4BE	:	00;
             4BF	:	00;
             4C0	:	00;
             4C1	:	0C;
             4C2	:	08;
             4C3	:	08;
             4C4	:	08;
             4C5	:	08;
             4C6	:	08;
             4C7	:	08;
             4C8	:	08;
             4C9	:	08;
             4CA	:	08;
             4CB	:	08;
             4CC	:	08;
             4CD	:	08;
             4CE	:	00;
             4CF	:	00;
             4D0	:	00;
             4D1	:	00;
             4D2	:	00;
             4D3	:	00;
             4D4	:	00;
             4D5	:	37;
             4D6	:	49;
             4D7	:	49;
             4D8	:	49;
             4D9	:	49;
             4DA	:	49;
             4DB	:	49;
             4DC	:	49;
             4DD	:	49;
             4DE	:	00;
             4DF	:	00;
             4E0	:	00;
             4E1	:	00;
             4E2	:	00;
             4E3	:	00;
             4E4	:	00;
             4E5	:	3A;
             4E6	:	46;
             4E7	:	42;
             4E8	:	42;
             4E9	:	42;
             4EA	:	42;
             4EB	:	42;
             4EC	:	42;
             4ED	:	42;
             4EE	:	00;
             4EF	:	00;
             4F0	:	00;
             4F1	:	00;
             4F2	:	00;
             4F3	:	00;
             4F4	:	00;
             4F5	:	1C;
             4F6	:	22;
             4F7	:	41;
             4F8	:	41;
             4F9	:	41;
             4FA	:	41;
             4FB	:	41;
             4FC	:	22;
             4FD	:	1C;
             4FE	:	00;
             4FF	:	00;
             500	:	00;
             501	:	00;
             502	:	00;
             503	:	00;
             504	:	00;
             505	:	1D;
             506	:	23;
             507	:	41;
             508	:	41;
             509	:	41;
             50A	:	41;
             50B	:	23;
             50C	:	1D;
             50D	:	01;
             50E	:	01;
             50F	:	01;
             510	:	00;
             511	:	00;
             512	:	00;
             513	:	00;
             514	:	00;
             515	:	5C;
             516	:	62;
             517	:	41;
             518	:	41;
             519	:	41;
             51A	:	41;
             51B	:	62;
             51C	:	5C;
             51D	:	40;
             51E	:	40;
             51F	:	40;
             520	:	00;
             521	:	00;
             522	:	00;
             523	:	00;
             524	:	00;
             525	:	34;
             526	:	0C;
             527	:	04;
             528	:	04;
             529	:	04;
             52A	:	04;
             52B	:	04;
             52C	:	04;
             52D	:	04;
             52E	:	00;
             52F	:	00;
             530	:	00;
             531	:	00;
             532	:	00;
             533	:	00;
             534	:	00;
             535	:	3C;
             536	:	42;
             537	:	02;
             538	:	06;
             539	:	18;
             53A	:	60;
             53B	:	40;
             53C	:	42;
             53D	:	3C;
             53E	:	00;
             53F	:	00;
             540	:	00;
             541	:	00;
             542	:	08;
             543	:	08;
             544	:	08;
             545	:	3E;
             546	:	08;
             547	:	08;
             548	:	08;
             549	:	08;
             54A	:	08;
             54B	:	08;
             54C	:	08;
             54D	:	30;
             54E	:	00;
             54F	:	00;
             550	:	00;
             551	:	00;
             552	:	00;
             553	:	00;
             554	:	00;
             555	:	42;
             556	:	42;
             557	:	42;
             558	:	42;
             559	:	42;
             55A	:	42;
             55B	:	42;
             55C	:	62;
             55D	:	5C;
             55E	:	00;
             55F	:	00;
             560	:	00;
             561	:	00;
             562	:	00;
             563	:	00;
             564	:	00;
             565	:	41;
             566	:	41;
             567	:	41;
             568	:	22;
             569	:	22;
             56A	:	14;
             56B	:	14;
             56C	:	08;
             56D	:	08;
             56E	:	00;
             56F	:	00;
             570	:	00;
             571	:	00;
             572	:	00;
             573	:	00;
             574	:	00;
             575	:	49;
             576	:	49;
             577	:	49;
             578	:	49;
             579	:	55;
             57A	:	55;
             57B	:	22;
             57C	:	22;
             57D	:	22;
             57E	:	00;
             57F	:	00;
             580	:	00;
             581	:	00;
             582	:	00;
             583	:	00;
             584	:	00;
             585	:	41;
             586	:	22;
             587	:	14;
             588	:	14;
             589	:	08;
             58A	:	14;
             58B	:	14;
             58C	:	22;
             58D	:	41;
             58E	:	00;
             58F	:	00;
             590	:	00;
             591	:	00;
             592	:	00;
             593	:	00;
             594	:	00;
             595	:	41;
             596	:	41;
             597	:	22;
             598	:	22;
             599	:	14;
             59A	:	14;
             59B	:	18;
             59C	:	08;
             59D	:	08;
             59E	:	04;
             59F	:	03;
             5A0	:	00;
             5A1	:	00;
             5A2	:	00;
             5A3	:	00;
             5A4	:	00;
             5A5	:	7E;
             5A6	:	20;
             5A7	:	10;
             5A8	:	10;
             5A9	:	08;
             5AA	:	08;
             5AB	:	04;
             5AC	:	02;
             5AD	:	7F;
             5AE	:	00;
             5AF	:	00;
             5B0	:	60;
             5B1	:	10;
             5B2	:	10;
             5B3	:	10;
             5B4	:	10;
             5B5	:	10;
             5B6	:	10;
             5B7	:	0C;
             5B8	:	10;
             5B9	:	10;
             5BA	:	10;
             5BB	:	10;
             5BC	:	10;
             5BD	:	10;
             5BE	:	10;
             5BF	:	60;
             5C0	:	08;
             5C1	:	08;
             5C2	:	08;
             5C3	:	08;
             5C4	:	08;
             5C5	:	08;
             5C6	:	08;
             5C7	:	08;
             5C8	:	08;
             5C9	:	08;
             5CA	:	08;
             5CB	:	08;
             5CC	:	08;
             5CD	:	08;
             5CE	:	08;
             5CF	:	08;
             5D0	:	06;
             5D1	:	08;
             5D2	:	08;
             5D3	:	08;
             5D4	:	08;
             5D5	:	08;
             5D6	:	08;
             5D7	:	30;
             5D8	:	08;
             5D9	:	08;
             5DA	:	08;
             5DB	:	08;
             5DC	:	08;
             5DD	:	08;
             5DE	:	08;
             5DF	:	06;
             5E0	:	00;
             5E1	:	00;
             5E2	:	00;
             5E3	:	06;
             5E4	:	49;
             5E5	:	30;
             5E6	:	00;
             5E7	:	00;
             5E8	:	00;
             5E9	:	00;
             5EA	:	00;
             5EB	:	00;
             5EC	:	00;
             5ED	:	00;
             5EE	:	00;
             5EF	:	00;
	END